benzene.xyz
 OpenBabel09232222103D

 14 14  0  0  0  0  0  0  0  0999 V2000
  -15.4470    1.7637    3.4948 C   0  0  0  0  0  0  0  0  0  0  0  0
  -15.7057    3.0321    2.9601 C   0  0  0  0  0  0  0  0  0  0  0  0
  -14.4382    1.6083    4.4594 C   0  0  0  0  0  0  0  0  0  0  0  0
  -13.6983    2.7168    4.8851 C   0  0  0  0  0  0  0  0  0  0  0  0
  -13.9627    3.9816    4.3511 C   0  0  0  0  0  0  0  0  0  0  0  0
  -14.9650    4.1388    3.3885 C   0  0  0  0  0  0  0  0  0  0  0  0
  -15.1688    5.1183    2.9758 H   0  0  0  0  0  0  0  0  0  0  0  0
  -16.4809    3.1612    2.2156 H   0  0  0  0  0  0  0  0  0  0  0  0
  -14.2291    0.6314    4.8778 H   0  0  0  0  0  0  0  0  0  0  0  0
  -12.9218    2.5952    5.6297 H   0  0  0  0  0  0  0  0  0  0  0  0
  -13.3916    4.8390    4.6832 H   0  0  0  0  0  0  0  0  0  0  0  0
  -16.2142    0.6407    3.0561 N   0  0  0  0  0  4  0  0  0  0  0  0
  -16.7084    0.2315    3.8814 H   0  0  0  0  0  0  0  0  0  0  0  0
  -15.5667   -0.0758    2.6563 H   0  0  0  0  0  0  0  0  0  0  0  0
  1  3  1  0  0  0  0
  1 12  1  0  0  0  0
  2  6  1  0  0  0  0
  2  1  2  0  0  0  0
  3  9  1  0  0  0  0
  3  4  2  0  0  0  0
  4 10  1  0  0  0  0
  5 11  1  0  0  0  0
  5  4  1  0  0  0  0
  6  5  2  0  0  0  0
  7  6  1  0  0  0  0
  8  2  1  0  0  0  0
 12 13  1  0  0  0  0
 12 14  1  0  0  0  0
M  END
$$$$
